
     RDKit          3D

 11 11  0  0  0  0  0  0  0  0999 V2000
    4.3550    0.3078    0.2799 N   0  0  0  0  0  0  0  0  0  0  0  0
    2.9704    0.2329   -0.1662 C   0  0  0  0  0  0  0  0  0  0  0  0
    2.1515   -0.1554    1.0623 C   0  0  0  0  0  0  0  0  0  0  0  0
    0.6954   -0.2582    0.6979 C   0  0  0  0  0  0  0  0  0  0  0  0
    0.1440   -1.4386    0.2628 C   0  0  0  0  0  0  0  0  0  0  0  0
   -1.1859   -1.4859   -0.0579 C   0  0  0  0  0  0  0  0  0  0  0  0
   -1.9949   -0.3801    0.0424 C   0  0  0  0  0  0  0  0  0  0  0  0
   -3.3449   -0.4469   -0.2880 O   0  0  0  0  0  0  0  0  0  0  0  0
   -1.4415    0.8194    0.4830 C   0  0  0  0  0  0  0  0  0  0  0  0
   -2.2416    1.9462    0.5908 O   0  0  0  0  0  0  0  0  0  0  0  0
   -0.1076    0.8589    0.8025 C   0  0  0  0  0  0  0  0  0  0  0  0
  1  2  1  0
  2  3  1  0
  3  4  1  0
  4  5  2  0
  5  6  1  0
  6  7  2  0
  7  8  1  0
  7  9  1  0
  9 10  1  0
  9 11  2  0
 11  4  1  0
M  END
>  <zinc_id>  (1) 
ZINC000000033882

>  <smiles>  (1) 
NCCc1ccc(O)c(O)c1

$$$$
